%% 一个简单的输电网扩展规划算例示意
% 基于matpower中的30节点网络，case30.m
clear all
close all
clc
define_constants; %打开这个函数可明确mpc的各个矩阵包含的信息，同时参见[1]
% [1]Appendix B Data File Format, MATPWER User s Manual Version 7.1
%2025.1.23：
% 将新建的碳捕集机组用变系数模型表示 总功率和实际碳相关 净输出功率和功率平衡方程相关
% 注意:最大净输出功率变成了容量-碳捕集设备固定能耗，进行容量备用约束时要减去这部分能耗
%2025.3.4
%1.将溶液存储器中贫、富液初始体积设置为决策变量
%2.增加机组启停决策变量和约束（启停时间约束 出力约束）机组启停成本
%3.其他机组参与碳捕集系统供能
%4.改造后的碳捕集机组的电碳也是可调的     
% 未完成：爬坡;溶剂损耗；

%% ***********Parameters **********
Years = 5; % Number of years
period_length = 3;
Hours = 24*4; % Total number of hours
N = 30; % number of load nodes
L = 41; % number of all lines
r = 0.08;     % 折现率
r_u = 0.05;   %系统正电力备用约束
r_d = 0.02;
T_o = 25;     % 运行年限
annuity_factor = (r * (1 + r)^T_o) / ((1 + r)^T_o - 1);
K = 4; % number of coal generation types

%% 设置一个Original scene，计算潮流和发电成本
% 假设原有节点节点负荷
gen_node = [1,2,22,27,23];
gen_c = setdiff(1:N, gen_node);
gen_status = [1,1,1,1,1,1];
l_status = zeros(L,1);
l_E = [1,2,3,4,5,6,7,8,9,10,11,12,13,14,15,16,17,19,20,22,23,24,25,26,27,29,30,31,32,33,34,35,36,37,38]; % 已建设线路
l_c = setdiff((1:L),l_E); %待建设线路选项
l_status(l_E)= 1;
% 计算当前线路连接状态下的潮流并画图
mpc = case30_modified;
mpc.gen(:, 8) = gen_status;
mpc.branch(:, 11) = l_status;
result = runpf(mpc);
% 检查收敛性
if result.success
    disp('潮流计算收敛。');
    % 输出最终的发电机功率和负荷功率
    total_gen_power = sum(result.gen(:, 2)); % 有功功率输出
    total_load_power = sum(mpc.bus(:, 3));   % 有功负荷
    disp(['最终发电机总功率: ', num2str(total_gen_power), ' MW']);
    disp(['最终负荷总功率: ', num2str(total_load_power), ' MW']);
else
    disp('潮流计算不收敛。');
end
% 潮流结果
fprintf('线路潮流:\n');
disp(result.branch(:, [1, 2, 14]));
Sbase = mpc.baseMVA;  % unit:VA
I = result.branch(:,1);
J = result.branch(:,2);
[Ainc] = makeIncidence(mpc); % branch-node incidence matrix
In = Ainc'; % node-branch incidence matrix, but with all lines closed
% 绘图
G = digraph(result.branch(:, 1),result.branch(:, 2),result.branch(:, 14)/Sbase);
figure;
h = plot(G, 'Layout', 'force', 'EdgeColor', 'k', 'NodeColor', 'b', 'MarkerSize', 8);
% 设置节点坐标
%          1，  2，3，4，5，  6，  7， 8，  9，10，11，12，13，14，15，16， 17，18，  19， 20，21，22，23，24，  25，  26，27，28，29
h.XData = [0,  4, 2, 4, 10, 12, 12, 15, 10, 10, 7,  4,  1,  1, 4, 6,   8,  6,  8.5, 10, 11, 12, 7, 12, 10,  5.0, 7.5, 15, 1.0, 1.0];
h.YData = [0, -3, 0, 0, -3,  0, -3,  0,  0,  3, 0,  3,  3,  7.5, 10, 5,  5, 7.5, 7.5, 7.5, 5, 3, 10, 10,   12.5, 12.5, 15, 15, 15, 10];
highlight(h,I(l_status==1),J(l_status==1),'LineWidth',3,'EdgeColor','k'); %画出已建设线路
highlight(h,I(l_status==0),J(l_status==0),'LineStyle','-.','LineWidth',1,'EdgeColor','b'); %画出待建设线路选项
h.EdgeLabel = G.Edges.Weight;
title('初始线路');
for i = 1:size(result.gen, 1)
    node = result.gen(i, 1);
    power = result.gen(i, 2);
    label_str = sprintf('机组出力：%.2f', power/Sbase);
    text(h.XData(node)+0.2, h.YData(node)-0.1, label_str, ...
        'HorizontalAlignment', 'left', 'VerticalAlignment', 'middle', 'Color', 'r', 'FontSize', 8);
end
for i= 1:N
    label_str = sprintf('负荷需求：%.2f',result.bus(i,PD)/Sbase);
    text(h.XData(i)-0.4, h.YData(i)+0.4, label_str, ...
        'HorizontalAlignment', 'left', 'VerticalAlignment', 'middle', 'Color', 'b', 'FontSize', 8);
end
% 待选节点
gen_nodes_new = [9,11,13,21,22,25,27];
N_new = length(gen_nodes_new); % 新的节点数
M = 1e7;
g_max_all = [300,600,1000,1200]/Sbase;%单位MW
g_max_gas = [180,220]/Sbase;
g_min_all = [0.5,0.5,0.4,0.4] .* g_max_all;
g_max_ccs = g_max_all * 0.9 ;
g_min_ccs = [0.45,0.35,0.30,0.25] .* g_max_all;%碳捕集电厂
g_min_gas = g_max_gas * 0.50;
x_coal_max = [4,5,1,3];%可规划的最大台数
x_gas_max = [4,5];
p_max = mpc.branch(:,RATE_A) * 2.5 / Sbase;%线路传输功率上限为750MW
xb = mpc.branch(:,BR_X); %线路电抗
c_lines = xb*100;  %用线路电抗代表线路长度，得到线路建设成本c_lines
%静态投资成本 单位：亿元
c_gen = [12.9,22,37.5,45]' * 1e8;   % 四种不同类型的燃煤机组静态投资成本/亿元
%c_gen_ccs = 0 * c_gen;
c_gen_ccs = 1.3 * c_gen;        % 新建ccs成本
c_gen_gas = [5.94,6.60]' * 1e8;
c_gen_trans = 0.35 * c_gen;
A_gen = c_gen * annuity_factor;
A_ccs = c_gen_ccs * annuity_factor;
A_gas = c_gen_gas * annuity_factor;
A_gen_trans = c_gen_trans * annuity_factor;
%运行成本
cost =     [0.3171,0.3171,0.2856,0.2856] * 1e5;   % 运行成本 单位：元/kWh   每100MW费用
cost_gas = [0.432,0.396] * 1e5;
K_q = 400;%弃风惩罚成本系数
%        300燃煤；600燃煤；180燃气；220燃气
C_start = [50000,100000,30000,40000];
% 碳排放强度 单位：t/MWh
cei =     [0.905,0.856,0.798,0.794] * 1e2;
cei_ccs = [0.171,0.162,0.145,0.141] * 1e2;
cei_gas = [0.45,0.44] * 1e2;
% 碳排放基准值
% year             1     2    3     4     5    6    7    8    9    
carbon_tax =     [95   105   115   125   135   145   155   165]*0.8;         % 碳税﻿ 单位：元/tCO2
% carbon_quota =   [0.7861 0.7822 0.778 0.774 0.770 0.766 0.762 0.758 0.754 0.750 0.746 0.742 0.738 0.734 0.730;%300MW等级以上常规燃煤机组
%                   0.7984 0.7944 0.79  0.786 0.782 0.778 0.774 0.77  0.766 0.762 0.758 0.754 0.75  0.746 0.742]* 1e2;%300MW等级以下常规燃煤机组
carbon_quota  = [0.78,0.77,0.76,0.75,0.74;0.79,0.78,0.77,0.76,0.75]* 1e2;
carbon_quota_gas = [0.3305 0.3240  0.3145  0.3098  0.3067]* 1e2;%燃煤机组碳排放基准值
Carbon_dioxide_price = 210;%出售二氧化碳价格
%生成一组24h负荷需求数据
pd = mpc.bus(:,PD)/Sbase; %负荷需求标幺值
pd_total = sum(pd);
System_demand = [330, 317, 311, 309, 315, 336, 358, 411, 478, 669, 723, 710, 700, 724, 730, 741, 725, 690, 750, 730, 690, 660, 540, 430,...
                 670, 630, 600, 590, 590, 600, 740, 800, 940, 960, 989, 1056, 1083, 1039, 1045, 930, 950, 978, 969, 932, 985, 940, 920, 730,...
                 450, 457.1, 464.3, 471.4, 478.6, 485.7, 520, 565, 700, 830, 960, 987, 976, 880, 897, 830, 941.4, 941.7, 850, 700, 650, 650, 575, 400,...
                 650, 666.7, 683.3, 600, 616.7, 633.3, 650, 700, 800, 850, 900, 893.3, 836.7, 880, 850, 870, 940, 966, 976.2, 886.5, 876.8, 777, 720, 750]'/Sbase;
E_beta = 0.9; % 碳捕集效率
delta_xz = 1;%烟气分流比限值
lamda_a = 0.0725/Sbase;% 吸收单位二氧化碳能耗
lamda_dc = 0.6525/Sbase; % 解吸+压缩单位二氧化碳能耗
M_MEA = 61.08; % M_MEA的摩尔质量
M_co2 = 44; % 二氧化碳的摩尔质量
theta_jx = 0.4; % 再生塔解析量
CR = 40; % 醇胺溶液浓度(%)
rou_R = 1.01; % 醇胺溶液密度
V_CR = 50000; % 溶液储液装置容量
rate_max = 5000 * [1,2,3,4];
K_R = 1.17; % 乙醇胺溶剂成本系数
fai = 1.5; % 溶剂运行损耗系数
K_VE = M_MEA *(M_co2 * theta_jx * CR/100 * rou_R)^(-1);
% 碳捕集设备固定能耗
P_D1 = 10/Sbase;
% 风电预测功率
P_predict23 = [101.5354433, 109.754919, 107.6934759, 99.70100773, 105.1803393, 109.5938896, 116.6003918, 106.2809465, 96.55900751, 88.7920412, 70.82870473, 63.44550811, 49.66194391, 36.60327348, 34.37090338, 32.65712234, 35.79285476, 42.78481108, 50.33486619, 68.0972751, 84.89900022, 93.75642266, 97.15189551, 104.5288674,...
               86.67792994, 82.81971655, 86.11585946, 76.86116995, 79.42513169, 78.16894149, 77.3923782, 71.20348368, 57.15523866, 52.95728635, 50.41964931, 53.47104885, 47.31772919, 46.21625637, 41.49033991, 40.86198181, 47.16144843, 45.63485673, 48.19303447, 67.29210429, 74.57736409, 80.46775276, 83.76730972, 89.3236515,...
               169.0869932, 181.5567182, 183.4692342, 183.7001892, 171.0240362, 154.7376901, 142.3822899, 136.089448, 127.9917186, 96.19559884, 91.80399629, 80.7058997, 70.75475284, 69.63098785, 77.84693879, 76.82974219, 66.57168647, 65.7707681, 85.18873093, 97.35381507, 104.3651762, 114.6288012, 135.1586558, 159.4699069,...
               102.5546591, 102.8054795, 108.0881568, 101.0097939, 107.3092366, 118.563866, 116.9543222, 120.41058, 126.1275906, 123.0645029, 104.8953124, 78.61875886, 65.52009066, 45.78356584, 41.11059942, 35.47358765, 38.51018157, 39.55829838, 42.02310657, 43.18066311, 58.28306305, 74.54098017, 78.20137599, 88.83930604]'/Sbase;%该风场容量为390MW
P_predict27 = [266.0367593, 263.5092031, 265.7104348, 261.6380752, 265.6647769, 238.8958294, 258.3456898, 256.4707815, 199.4063396, 164.9607317, 158.397803, 140.1976845, 137.7615715, 148.9003129, 141.9807933, 151.3475427, 144.3794297, 148.874679, 172.1498061, 185.8389283, 214.8976196, 245.1756518, 248.3846512, 229.1140116,...
               323.3764011, 317.0672966, 290.7380682, 245.5905582, 246.0065491, 214.086545, 210.2052799, 208.9012573, 225.3374948, 212.4634211, 231.9425717, 254.5457145, 260.678996, 263.5199853, 247.3174173, 277.7094081, 293.9744066, 295.5504476, 282.4592318, 252.3895349, 235.8135765, 242.6796951, 279.7698785, 299.3098034,...
               367.472431, 356.9106357, 326.2150986, 308.4304066, 339.1413314, 326.6366373, 334.7795309, 342.2235065, 299.9933147, 246.4867918, 238.3075285, 252.4129447, 320.5171108, 344.4022794, 347.200607, 391.2038897, 387.6419588, 367.2238761, 378.5371925, 371.996488, 363.9935079, 351.012443, 361.6517508, 371.3930442,...
               164.5925684, 161.8065653, 159.0886511, 147.3812445, 146.2471562, 161.6236523, 168.8629218, 170.4721205, 182.205493, 204.7221299, 177.5438182, 163.0474545, 159.7465651, 135.7167871, 135.9053694, 135.1690911, 125.2841339, 136.4921162, 126.0656053, 136.3669099, 135.9978925, 146.9568736, 150.3926508, 172.8439097]'/Sbase;%该风场容量为1000MW
% 净负荷
NetLoad = System_demand - P_predict23 - P_predict27;
% 30节点24小时负荷数据
P_load(:,:,1)=((System_demand) .* (pd/pd_total)')';%P_load（30*24*6）
% 风功率和系统负荷需求
figure
plot(P_predict23 + P_predict27,'c-<','LineWidth',1.5)
hold on
plot(System_demand,'m-s','LineWidth',1.5)
plot(NetLoad,'r->','LineWidth',1.5)
legend('风电出力','电负荷','净负荷')
xlabel('时间/h');
ylabel('功率/100MW');
title('净负荷初始数据');
growth_rate = (1.06)^3; % 6% growth rate per year
for year = 2:Years
    P_load(:,:,year) = P_load(:,:,year-1) * growth_rate;
end
P_load_max = zeros(1, Years);
P_load_min = zeros(1, Years);
for y = 1:Years
    total_load_per_hour = sum(P_load(:,:,y), 1);
    P_load_max(y) = max(total_load_per_hour);
    P_load_min(y) = min(total_load_per_hour);
end
T_on_min = 6; % 最小连续开机时间
T_off_min = 6; % 最小连续关停时间
%% ***********Variable statement**********
%% 投资决策变量
x_lines = binvar(L,Years);%是否建设线路L

x_gen_coal_1 = binvar(N_new,x_coal_max(1),Years);%在N个节点各建设几台1型燃煤机组
x_gen_coal_2 = binvar(N_new,x_coal_max(2),Years);%在N个节点各建设几台2型燃煤机组
x_gen_coal_3 = binvar(N_new,x_coal_max(3),Years);%在N个节点各建设几台3型燃煤机组
x_gen_coal_4 = binvar(N_new,x_coal_max(4),Years);%在N个节点各建设几台4型燃煤机组

x_gen_ccs_1 = binvar(N_new,x_coal_max(1),Years);%在N个节点各建设几台1型ccs
x_gen_ccs_2 = binvar(N_new,x_coal_max(2),Years);%在N个节点各建设几台2型ccs
x_gen_ccs_3 = binvar(N_new,x_coal_max(3),Years);%在N个节点各建设几台3型ccs
x_gen_ccs_4 = binvar(N_new,x_coal_max(4),Years);%在N个节点各建设几台4型ccs

x_gen_gas_1 = binvar(N_new,x_gas_max(1),Years);%在N个节点各建设几台1型gas
x_gen_gas_2 = binvar(N_new,x_gas_max(2),Years);%在N个节点各建设几台2型gas

x_gens = sdpvar(4,Years);
x_gens_ccs = sdpvar(4,Years);
x_gens_gas = sdpvar(2,Years);

% 投资状态变量
I_lines = binvar(L,Years);%是否已建设线路L
I_gen_coal_1 = binvar(N_new,x_coal_max(1),Years);%在N个节点是否已建设1型燃煤机组
I_gen_coal_2 = binvar(N_new,x_coal_max(2),Years);%在N个节点是否已建设2型燃煤机组
I_gen_coal_3 = binvar(N_new,x_coal_max(3),Years);%在N个节点是否已建设3型燃煤机组
I_gen_coal_4 = binvar(N_new,x_coal_max(4),Years);%在N个节点是否已建设4型燃煤机组
I_gen_ccs_1 = binvar(N_new,x_coal_max(1),Years);
I_gen_ccs_2 = binvar(N_new,x_coal_max(2),Years);
I_gen_ccs_3 = binvar(N_new,x_coal_max(3),Years);
I_gen_ccs_4 = binvar(N_new,x_coal_max(4),Years);
I_gen_gas_1 = binvar(N_new,x_gas_max(1),Years);
I_gen_gas_2 = binvar(N_new,x_gas_max(2),Years);
%% 改造决策变量
% 原有的三台燃煤机组是否改造为碳捕集机组
x_trans_gexist = binvar(3,Years);
I_trans_gexist = binvar(3,Years);
g_trans_net = sdpvar(3,Hours,Years);
g_trans_ccs = sdpvar(3,Hours,Years);
E_trans_ab = sdpvar(3,Hours,Years);
E_trans_de = sdpvar(3,Hours,Years);
E_trans_net = sdpvar(3,Hours,Years);
%% 运行决策变量
theta = sdpvar(N,Hours,Years);
p = sdpvar(L,Hours,Years);
pd_shed = sdpvar(N,Hours,Years);
g_exist = sdpvar(N,Hours,Years);
g_exist_c = sdpvar(N,Hours,Years);
g_exist_w1 = sdpvar(1,Hours,Years);
g_exist_w1_net = sdpvar(1,Hours,Years);
g_exist_w1_ccs = sdpvar(1,Hours,Years);
g_exist_w2 = sdpvar(1,Hours,Years);
g_exist_w2_net = sdpvar(1,Hours,Years);
g_exist_w2_ccs = sdpvar(1,Hours,Years);
g_exist_toccs = sdpvar(N,Hours,Years);
%机组组合相关变量
u1 = binvar(N_new,x_coal_max(1),Hours,Years,'full');%节点N的第K台机组在t时段是否运行
u2 = binvar(N_new,x_coal_max(2),Hours,Years,'full');
u3 = binvar(N_new,x_gas_max(1),Hours,Years,'full');
u4 = binvar(N_new,x_gas_max(2),Hours,Years,'full');
uccs1 = binvar(N_new,x_coal_max(1),Hours,Years,'full');
uccs2 = binvar(N_new,x_coal_max(2),Hours,Years,'full');
u_ex = binvar(N,Hours,Years,'full');
v1 = binvar(N_new,x_coal_max(1),Hours,Years,'full');%开机
v2 = binvar(N_new,x_coal_max(2),Hours,Years,'full');
v3 = binvar(N_new,x_gas_max(1),Hours,Years,'full');
v4 = binvar(N_new,x_gas_max(2),Hours,Years,'full');
vccs1 = binvar(N_new,x_coal_max(1),Hours,Years,'full');
vccs2 = binvar(N_new,x_coal_max(2),Hours,Years,'full');
v_ex = binvar(N,Hours,Years,'full');
w1 = binvar(N_new,x_coal_max(1),Hours,Years,'full');%关机
w2 = binvar(N_new,x_coal_max(2),Hours,Years,'full');
w3 = binvar(N_new,x_gas_max(1),Hours,Years,'full');
w4 = binvar(N_new,x_gas_max(2),Hours,Years,'full');
wccs1 = binvar(N_new,x_coal_max(1),Hours,Years,'full');
wccs2 = binvar(N_new,x_coal_max(2),Hours,Years,'full');
w_ex = binvar(N,Hours,Years,'full');
%燃煤机组
g_coal_1 = sdpvar(N_new,x_coal_max(1),Hours,Years,'full');%节点N的第K台机组在t时段的输出功率
g_coal_2 = sdpvar(N_new,x_coal_max(2),Hours,Years,'full');
g_coal_3 = sdpvar(N_new,x_coal_max(3),Hours,Years,'full');
g_coal_4 = sdpvar(N_new,x_coal_max(4),Hours,Years,'full');

sum_type_g = sdpvar(N_new,length(x_coal_max),Hours,Years,'full');%四种类型一共发了多少
sum_coal = sdpvar(length(x_coal_max),Years);
%% 碳捕集机组运行决策变量
%节点N的第K台机组在t时段的实际功率
g_ccs_1 = sdpvar(N_new,x_coal_max(1),Hours,Years,'full');
g_ccs_2 = sdpvar(N_new,x_coal_max(2),Hours,Years,'full');
g_ccs_3 = sdpvar(N_new,x_coal_max(3),Hours,Years,'full');
g_ccs_4 = sdpvar(N_new,x_coal_max(4),Hours,Years,'full');
g_ccs_1_net = sdpvar(N_new,x_coal_max(1),Hours,Years,'full');
g_ccs_2_net = sdpvar(N_new,x_coal_max(2),Hours,Years,'full');
g_ccs_3_net = sdpvar(N_new,x_coal_max(3),Hours,Years,'full');
g_ccs_4_net = sdpvar(N_new,x_coal_max(4),Hours,Years,'full');
g_ccs_1_ccs = sdpvar(N_new,x_coal_max(1),Hours,Years,'full');
g_ccs_2_ccs = sdpvar(N_new,x_coal_max(2),Hours,Years,'full');
g_ccs_3_ccs = sdpvar(N_new,x_coal_max(3),Hours,Years,'full');
g_ccs_4_ccs = sdpvar(N_new,x_coal_max(4),Hours,Years,'full');
energy_ccs1 = sdpvar(N_new,x_coal_max(1),Hours,Years,'full');
energy_ccs2 = sdpvar(N_new,x_coal_max(2),Hours,Years,'full');
energy_ccs3 = sdpvar(N_new,x_coal_max(3),Hours,Years,'full');
energy_ccs4 = sdpvar(N_new,x_coal_max(4),Hours,Years,'full');
sum_type_g_ccs = sdpvar(N_new,length(x_coal_max),Hours,Years,'full');%四种类型一共发了多少
sum_ccs = sdpvar(length(x_coal_max),Years);
%节点N的第K台机组在t时段的净输出功率
g_ccs_N_1 = sdpvar(N_new,x_coal_max(1),Hours,Years,'full');
g_ccs_N_2 = sdpvar(N_new,x_coal_max(2),Hours,Years,'full');
g_ccs_N_3 = sdpvar(N_new,x_coal_max(3),Hours,Years,'full');
g_ccs_N_4 = sdpvar(N_new,x_coal_max(4),Hours,Years,'full');
% 碳排放量
E_ccs_1 = sdpvar(N_new,x_coal_max(1),Hours,Years,'full');
E_ccs_2 = sdpvar(N_new,x_coal_max(2),Hours,Years,'full');
E_ccs_3 = sdpvar(N_new,x_coal_max(3),Hours,Years,'full');
E_ccs_4 = sdpvar(N_new,x_coal_max(4),Hours,Years,'full');
E_ccs_ab_1 = sdpvar(N_new,x_coal_max(1),Hours,Years,'full');
E_ccs_ab_2 = sdpvar(N_new,x_coal_max(2),Hours,Years,'full');
E_ccs_ab_3 = sdpvar(N_new,x_coal_max(3),Hours,Years,'full');
E_ccs_ab_4 = sdpvar(N_new,x_coal_max(4),Hours,Years,'full');
E_ccs_de_1 = sdpvar(N_new,x_coal_max(1),Hours,Years,'full');
E_ccs_de_2 = sdpvar(N_new,x_coal_max(2),Hours,Years,'full');
E_ccs_de_3 = sdpvar(N_new,x_coal_max(3),Hours,Years,'full');
E_ccs_de_4 = sdpvar(N_new,x_coal_max(4),Hours,Years,'full');
E_ccs_NET_1 = sdpvar(N_new,x_coal_max(1),Hours,Years,'full');
E_ccs_NET_2 = sdpvar(N_new,x_coal_max(2),Hours,Years,'full');
E_ccs_NET_3 = sdpvar(N_new,x_coal_max(3),Hours,Years,'full');
E_ccs_NET_4 = sdpvar(N_new,x_coal_max(4),Hours,Years,'full');

%燃气机组
g_gas_1 = sdpvar(N_new,x_gas_max(1),Hours,Years,'full');%节点N的第K台机组在t时段的输出功率
g_gas_2 = sdpvar(N_new,x_gas_max(2),Hours,Years,'full');

sum_type_g_gas = sdpvar(N_new,length(x_gas_max),Hours,Years,'full');%四种类型一共发了多少
sum_gas = sdpvar(length(x_gas_max),Years);

%% ***********Constraints*************
%% Cons0: 投资状态
display('***开始建立投资状态相关约束！***')
tic
%投资决策变量
Cons = [];
Cons = [Cons,x_gens(1,:) == squeeze(sum(sum(x_gen_coal_1, 2)))'];
Cons = [Cons,x_gens(2,:) == squeeze(sum(sum(x_gen_coal_2, 2)))'];
Cons = [Cons,x_gens(3,:) == squeeze(sum(sum(x_gen_coal_3, 2)))'];
Cons = [Cons,x_gens(4,:) == squeeze(sum(sum(x_gen_coal_4, 2)))'];
Cons = [Cons,x_gens_ccs(1,:) == squeeze(sum(sum(x_gen_ccs_1, 2)))'];
Cons = [Cons,x_gens_ccs(2,:) == squeeze(sum(sum(x_gen_ccs_2, 2)))'];
Cons = [Cons,x_gens_ccs(3,:) == squeeze(sum(sum(x_gen_ccs_3, 2)))'];
Cons = [Cons,x_gens_ccs(4,:) == squeeze(sum(sum(x_gen_ccs_4, 2)))'];
Cons = [Cons,x_gens_gas(1,:) == squeeze(sum(sum(x_gen_gas_1, 2)))'];
Cons = [Cons,x_gens_gas(2,:) == squeeze(sum(sum(x_gen_gas_2, 2)))'];
%机组建设数目上限
 Cons = [Cons, sum(x_gens,2) <= x_coal_max'];
 Cons = [Cons, sum(x_gens_ccs,2) <= x_coal_max'];
 Cons = [Cons, sum(x_gens_gas,2) <= x_gas_max'];
%投资状态变量
for year = 1:Years
    if year == 1
        % 第一年
        Cons = [Cons, I_lines(:,year) == l_status + x_lines(:,year)];

        Cons = [Cons, I_gen_coal_1(:,:,year) == x_gen_coal_1(:,:,year)];
        Cons = [Cons, I_gen_coal_2(:,:,year) == x_gen_coal_2(:,:,year)];
        Cons = [Cons, I_gen_coal_3(:,:,year) == x_gen_coal_3(:,:,year)];
        Cons = [Cons, I_gen_coal_4(:,:,year) == x_gen_coal_4(:,:,year)];

        Cons = [Cons, I_gen_ccs_1(:,:,year) == x_gen_ccs_1(:,:,year)];
        Cons = [Cons, I_gen_ccs_2(:,:,year) == x_gen_ccs_2(:,:,year)];
        Cons = [Cons, I_gen_ccs_3(:,:,year) == x_gen_ccs_3(:,:,year)];
        Cons = [Cons, I_gen_ccs_4(:,:,year) == x_gen_ccs_4(:,:,year)];

        Cons = [Cons, I_gen_gas_1(:,:,year) == x_gen_gas_1(:,:,year)];
        Cons = [Cons, I_gen_gas_2(:,:,year) == x_gen_gas_2(:,:,year)];

        Cons = [Cons, I_trans_gexist(:,year) == x_trans_gexist(:,year)];
    else
        % 之后的年份投资状态变量等于上一年的状态变量加上本年的建设决策变量
        Cons = [Cons, I_lines(:,year) == I_lines(:,year-1) + x_lines(:,year)];

        Cons = [Cons, I_gen_coal_1(:,:,year) == I_gen_coal_1(:,:,year-1) + x_gen_coal_1(:,:,year)];
        Cons = [Cons, I_gen_coal_2(:,:,year) == I_gen_coal_2(:,:,year-1) + x_gen_coal_2(:,:,year)];
        Cons = [Cons, I_gen_coal_3(:,:,year) == I_gen_coal_3(:,:,year-1) + x_gen_coal_3(:,:,year)];
        Cons = [Cons, I_gen_coal_4(:,:,year) == I_gen_coal_4(:,:,year-1) + x_gen_coal_4(:,:,year)];

        Cons = [Cons, I_gen_ccs_1(:,:,year) == I_gen_ccs_1(:,:,year-1) + x_gen_ccs_1(:,:,year)];
        Cons = [Cons, I_gen_ccs_2(:,:,year) == I_gen_ccs_2(:,:,year-1) + x_gen_ccs_2(:,:,year)];
        Cons = [Cons, I_gen_ccs_3(:,:,year) == I_gen_ccs_3(:,:,year-1) + x_gen_ccs_3(:,:,year)];
        Cons = [Cons, I_gen_ccs_4(:,:,year) == I_gen_ccs_4(:,:,year-1) + x_gen_ccs_4(:,:,year)];

        Cons = [Cons, I_gen_gas_1(:,:,year) == I_gen_gas_1(:,:,year-1) + x_gen_gas_1(:,:,year)];
        Cons = [Cons, I_gen_gas_2(:,:,year) == I_gen_gas_2(:,:,year-1) + x_gen_gas_2(:,:,year)];

        Cons = [Cons, I_trans_gexist(:,year) == I_trans_gexist(:,year-1) + x_trans_gexist(:,year)];

        % 防止重复建设：如果已经建设，后续年份不再建设
        Cons = [Cons, x_lines(:,year) <= 1 - I_lines(:,year-1)];

        Cons = [Cons, x_gen_coal_1(:,:,year) <= 1 - I_gen_coal_1(:,:,year-1)];
        Cons = [Cons, x_gen_coal_2(:,:,year) <= 1 - I_gen_coal_2(:,:,year-1)];
        Cons = [Cons, x_gen_coal_3(:,:,year) <= 1 - I_gen_coal_3(:,:,year-1)];
        Cons = [Cons, x_gen_coal_4(:,:,year) <= 1 - I_gen_coal_4(:,:,year-1)];

        Cons = [Cons, x_gen_ccs_1(:,:,year) <= 1 - I_gen_ccs_1(:,:,year-1)];
        Cons = [Cons, x_gen_ccs_2(:,:,year) <= 1 - I_gen_ccs_2(:,:,year-1)];
        Cons = [Cons, x_gen_ccs_3(:,:,year) <= 1 - I_gen_ccs_3(:,:,year-1)];
        Cons = [Cons, x_gen_ccs_4(:,:,year) <= 1 - I_gen_ccs_4(:,:,year-1)];

        Cons = [Cons, x_gen_gas_1(:,:,year) <= 1 - I_gen_gas_1(:,:,year-1)];
        Cons = [Cons, x_gen_gas_2(:,:,year) <= 1 - I_gen_gas_2(:,:,year-1)];

        Cons = [Cons, x_trans_gexist(:,year) <= 1 - I_trans_gexist(:,year-1)];

    end
end
toc
% % %test 
Cons = [Cons, I_trans_gexist == 0];
% Cons = [Cons, I_gen_ccs_1 == 0];
% Cons = [Cons, I_gen_ccs_2 == 0];
% Cons = [Cons, I_gen_ccs_3 == 0];
% Cons = [Cons, I_gen_ccs_4 == 0];
display('***投资状态相关约束 建立完成！***')
%% Cons1: 直流潮流约束+TEP
display('***开始建立 直流潮流约束+TEP 相关约束！***')
tic
sum_N_g = sdpvar(N,Hours,Years); % N个节点的燃煤机组输出功率
sum_N_g_ccs = sdpvar(N,Hours,Years);% N个节点的碳捕集机组【净】输出功率
sum_N_g_ccstoccs = sdpvar(N,Hours,Years);
sum_N_g_gas = sdpvar(N,Hours,Years);% N个节点的燃气机组输出功率
energy_ccs_total = sdpvar(N,Hours,Years);

for y = 1:Years
    for h = 1:Hours
        for i = 1:N_new
            node = gen_nodes_new(i);
            % 各节点燃煤机组上网功率
            Cons = [Cons,sum_N_g(node,h,y) == sum(g_coal_1(i,:,h,y), 2) + sum(g_coal_2(i,:,h,y), 2) + sum(g_coal_3(i,:,h,y), 2) + sum(g_coal_4(i,:,h,y), 2)];%每个节点所有机组在某一时刻的总输出功率的变量
            Cons = [Cons,sum_N_g(setdiff(1:N, gen_nodes_new),h,y) == 0 ];
            % 各节点碳捕集机组上网功率
            Cons = [Cons,sum_N_g_ccs(node,h,y) == sum(g_ccs_1_net(i,:,h,y), 2) + sum(g_ccs_2_net(i,:,h,y), 2) + sum(g_ccs_3_net(i,:,h,y), 2) + sum(g_ccs_4_net(i,:,h,y), 2)];%每个节点所有碳捕集机组在某一时刻的总【净】输出功率的变量
            Cons = [Cons,sum_N_g_ccs(setdiff(1:N, gen_nodes_new),h,y) == 0 ];
            % 各节点碳捕集机组直供碳捕集设备的功率
            Cons = [Cons,sum_N_g_ccstoccs(node,h,y) == sum(g_ccs_1_ccs(i,:,h,y), 2) + sum(g_ccs_2_ccs(i,:,h,y), 2) + sum(g_ccs_3_ccs(i,:,h,y), 2) + sum(g_ccs_4_ccs(i,:,h,y), 2)];
            Cons = [Cons,sum_N_g_ccstoccs(setdiff(1:N, gen_nodes_new),h,y) == 0 ];
            % 各节点燃气机组上网功率
            Cons = [Cons,sum_N_g_gas(node,h,y) == sum(g_gas_1(i,:,h,y), 2) + sum(g_gas_2(i,:,h,y), 2)];%每个节点所有燃气机组在某一时刻的总输出功率的变量
            Cons = [Cons,sum_N_g_gas(setdiff(1:N, gen_nodes_new),h,y) == 0 ];
            % 各节点碳捕集设备功率需求（仅由风机和碳捕集机组提供）
            Cons = [Cons,energy_ccs_total(node,h,y) == sum(energy_ccs1(i,:,h,y), 2)+sum(energy_ccs2(i,:,h,y), 2)+sum(energy_ccs3(i,:,h,y), 2)+sum(energy_ccs4(i,:,h,y), 2)];
            Cons = [Cons,energy_ccs_total(setdiff(1:N, gen_nodes_new),h,y) == 0];
        end
        Cons = [Cons,-(1 - I_lines(:,y)) * M <= In'*theta(:,h,y) - p(:,h,y).* xb];
        Cons = [Cons,In'*theta(:,h,y) - p(:,h,y).* xb <= (1 - I_lines(:,y)) * M];
        Cons = [Cons,In * p(:,h,y) == sum_N_g(:,h,y) + sum_N_g_ccs(:,h,y) + sum_N_g_gas(:,h,y) + g_exist(:,h,y) - (P_load(:,h,y) - pd_shed(:,h,y)) ];
        Cons = [Cons, energy_ccs_total(:,h,y) == g_exist_toccs(:,h,y) + sum_N_g_ccstoccs(:,h,y)];
        Cons = [Cons,theta(1,h,y) == 0];
        Cons = [Cons,- I_lines(:,y) .* p_max <= p(:,h,y)];%线路容量下限
        Cons = [Cons,p(:,h,y) <= I_lines(:,y) .* p_max];%线路容量上限
        Cons = [Cons,P_load(:,h,y) >= pd_shed(:,h,y) >= 0];
    end
end
%下面这个循环是为了保证规划结果便于观测，无物理意义
for j = 2:x_coal_max(1)
    Cons = [Cons, x_gen_coal_1(:,j,:) <= x_gen_coal_1(:,j-1,:)];
    Cons = [Cons, x_gen_ccs_1(:,j,:) <= x_gen_ccs_1(:,j-1,:)];
end
for j = 2:x_coal_max(2)
    Cons = [Cons, x_gen_coal_2(:,j,:) <= x_gen_coal_2(:,j-1,:)];
    Cons = [Cons, x_gen_ccs_2(:,j,:) <= x_gen_ccs_2(:,j-1,:)];
end
for j = 2:x_coal_max(4)
    Cons = [Cons, x_gen_coal_4(:,j,:) <= x_gen_coal_4(:,j-1,:)];
    Cons = [Cons, x_gen_ccs_4(:,j,:) <= x_gen_ccs_4(:,j-1,:)];
end

toc
display('***直流潮流约束+TEP 相关约束 建立完成！***')
%% Cons2: 机组发电功率约束
display('***开始建立 机组发电功率 相关约束！***')
tic
% 原有机组
gen_node = [1,2,22];
gen_c = setdiff(1:N, gen_node);
Cons = [Cons,g_exist_c(gen_c,:,:) == 0];%初始条件
Cons = [Cons,u_ex(gen_c,:,:) == 0];
Cons = [Cons,v_ex(gen_c,:,:) == 0];
Cons = [Cons,w_ex(gen_c,:,:) == 0];
for i = 1:length(gen_node)
    node = gen_node(i);
    for year = 1:Years
% %       改造后用固定运行方式计算：
%         Cons = [Cons, g_min_all(1) * (1 - I_trans_gexist(i, year)) + g_min_ccs(1) * I_trans_gexist(i, year) <= g_exist_c(node, :, year)];
%         Cons = [Cons, g_exist_c(node, :, year) <= g_max_all(1) * (1 - I_trans_gexist(i, year)) + g_max_ccs(1) * I_trans_gexist(i, year)];
%         改造后用可变运行方式计算：
          Cons = [Cons, g_min_all(1) * u_ex(node, :, year) <= g_exist_c(node, :, year) <= g_max_all(1) * u_ex(node, :, year)];
    end
end
% 对于 23 和 27 节点，分别加入风电出力
Cons = [Cons, g_exist_w1_net + g_exist_w1_ccs == g_exist_w1];
Cons = [Cons, g_exist_w2_net + g_exist_w2_ccs == g_exist_w2];
Cons = [Cons, g_exist_w1_net >= 0];
Cons = [Cons, g_exist_w1_ccs >= 0];
Cons = [Cons, g_exist_w2_net >= 0];
Cons = [Cons, g_exist_w2_ccs >= 0];
for y = 1:Years
    for h = 1:Hours
        Cons = [Cons, 0 <= g_exist_w1(1, h, y) <= P_predict23(h)];
        Cons = [Cons, 0 <= g_exist_w2(1, h, y) <= P_predict27(h)];
        Cons = [Cons, g_exist(23, h, y) ==  g_exist_w1_net(1,h,y)];
        Cons = [Cons, g_exist(27, h, y) ==  g_exist_w2_net(1,h,y)];
        Cons = [Cons, g_exist_toccs(23, h, y) ==  g_exist_w1_ccs(1,h,y)];
        Cons = [Cons, g_exist_toccs(27, h, y) ==  g_exist_w2_ccs(1,h,y)];        

        other_nodes = setdiff(1:N, [23, 27]); % 排除23和27节点
        for i = other_nodes
            Cons = [Cons, g_exist(i, h, y) == g_exist_c(i, h, y)];
            Cons = [Cons, g_exist_toccs(i, h, y) ==  0];
        end
    end
end
%% 改造机组
% 改造的碳捕集电厂不从电网获取功率【后续可以区分】
Cons = [Cons, g_trans_net >= 0];
Cons = [Cons, g_trans_ccs >= 0];
Cons = [Cons,E_trans_ab >= 0];
Cons = [Cons,E_trans_de >= 0];
Cons = [Cons,E_trans_net >= 0];
for y =1: Years
    for i = 1:3
        j = gen_node(i);
        Cons = [Cons,g_exist_c(j,:,y) == g_trans_net(i,:,y) + g_trans_ccs(i,:,y)* I_trans_gexist(i,y)];
        for t = 1:Hours
            Cons = [Cons,g_trans_ccs(i,t,y) == lamda_a * E_trans_ab(i,t,y) + lamda_dc *  E_trans_de(i,t,y) + P_D1 ];
            Cons = [Cons,E_trans_ab(i,t,y) <= ((g_trans_net(i,t,y) + g_trans_ccs(i,t,y))) * cei(1) * E_beta * I_trans_gexist(i,y)];
            Cons = [Cons, E_trans_ab(i,t,y) <= rate_max(1) * I_trans_gexist(i,y)];
            Cons = [Cons, E_trans_de(i,t,y) <= rate_max(1) * I_trans_gexist(i,y)];%流速设置为5000
        end
    end
end
Cons = [Cons,E_trans_ab >= 0];
Cons = [Cons,E_trans_de >= 0];
Cons = [Cons,E_trans_net == cei(1) * (g_trans_net + g_trans_ccs) - E_trans_ab];
% 初始平衡
Cons = [Cons,sum(E_trans_ab,2) == sum(E_trans_de,2)];

%% 新增机组
for i=1:N_new
    %Cons = [Cons, u(i,k,t) <= x_gen_coal(i,k)];%运行的机组和投建机组的关系
    %机组发电功率上限 其中1、2型燃煤可以启停
    for t = 1:Hours
        Cons = [Cons, u1(i,:,t,:) * g_min_all(1) <= g_coal_1(i,:,t,:)];
        Cons = [Cons, g_coal_1(i,:,t,:) <= u1(i,:,t,:) * g_max_all(1)];
        Cons = [Cons, u2(i,:,t,:) * g_min_all(2) <= g_coal_2(i,:,t,:)];
        Cons = [Cons, g_coal_2(i,:,t,:) <= u2(i,:,t,:)* g_max_all(2)];
        Cons = [Cons, I_gen_coal_3(i,:,:) .* g_min_all(3) <= g_coal_3(i,:,t,:)];
        Cons = [Cons, g_coal_3(i,:,t,:) <= I_gen_coal_3(i,:,:) .* g_max_all(3)];
        Cons = [Cons, I_gen_coal_4(i,:,:) .* g_min_all(4) <= g_coal_4(i,:,t,:)];
        Cons = [Cons, g_coal_4(i,:,t,:) <= I_gen_coal_4(i,:,:) .* g_max_all(4)];
        Cons = [Cons, u1(i,:,t,:) <= I_gen_coal_1(i,:,:)];
        Cons = [Cons, u2(i,:,t,:) <= I_gen_coal_2(i,:,:)];
        Cons = [Cons, v1(i,:,t,:) <= I_gen_coal_1(i,:,:)];
        Cons = [Cons, v2(i,:,t,:) <= I_gen_coal_2(i,:,:)];
        Cons = [Cons, w1(i,:,t,:) <= I_gen_coal_1(i,:,:)];
        Cons = [Cons, w2(i,:,t,:) <= I_gen_coal_2(i,:,:)];
        % 碳捕集电厂【总功率】的上限就是火电机组的上下限
        % 碳捕集电厂总功率 未建设时为0
        Cons = [Cons, uccs1(i,:,t,:) * g_min_all(1) <= g_ccs_1(i,:,t,:)];
        Cons = [Cons, g_ccs_1(i,:,t,:) <= uccs1(i,:,t,:) * g_max_all(1)];
        Cons = [Cons, uccs2(i,:,t,:) * g_min_all(2) <= g_ccs_2(i,:,t,:)];
        Cons = [Cons, g_ccs_2(i,:,t,:) <= uccs2(i,:,t,:) * g_max_all(2)];
        Cons = [Cons, I_gen_ccs_3(i,:,:) * g_min_all(3) <= g_ccs_3(i,:,t,:)];
        Cons = [Cons, g_ccs_3(i,:,t,:) <= I_gen_ccs_3(i,:,:) .* g_max_all(3)];
        Cons = [Cons, I_gen_ccs_4(i,:,:) .* g_min_all(4) <= g_ccs_4(i,:,t,:)];
        Cons = [Cons, g_ccs_4(i,:,t,:) <= I_gen_ccs_4(i,:,:) .* g_max_all(4)];
        Cons = [Cons, uccs1(i,:,t,:) <= I_gen_ccs_1(i,:,:)];
        Cons = [Cons, uccs2(i,:,t,:) <= I_gen_ccs_2(i,:,:)];
        Cons = [Cons, vccs1(i,:,t,:) <= I_gen_ccs_1(i,:,:)];
        Cons = [Cons, vccs2(i,:,t,:) <= I_gen_ccs_2(i,:,:)];
        Cons = [Cons, wccs1(i,:,t,:) <= I_gen_ccs_1(i,:,:)];
        Cons = [Cons, wccs2(i,:,t,:) <= I_gen_ccs_2(i,:,:)];
        % 燃气机组发电功率上限 均可以启停
        Cons = [Cons, u3(i,:,t,:)* g_min_gas(1) <= g_gas_1(i,:,t,:)];
        Cons = [Cons, g_gas_1(i,:,t,:) <= u3(i,:,t,:) * g_max_gas(1)];
        Cons = [Cons, u4(i,:,t,:)* g_min_gas(2) <= g_gas_2(i,:,t,:)];
        Cons = [Cons, g_gas_2(i,:,t,:) <= u4(i,:,t,:) * g_max_gas(2)];
        Cons = [Cons, u3(i,:,t,:) <= I_gen_gas_1(i,:,:)];
        Cons = [Cons, u4(i,:,t,:) <= I_gen_gas_2(i,:,:)];
        Cons = [Cons, v3(i,:,t,:) <= I_gen_coal_1(i,:,:)];
        Cons = [Cons, v4(i,:,t,:) <= I_gen_coal_2(i,:,:)];
        Cons = [Cons, w3(i,:,t,:) <= I_gen_coal_1(i,:,:)];
        Cons = [Cons, w4(i,:,t,:) <= I_gen_coal_2(i,:,:)];
        %烟气分流比限值约束直接写成可吸收的二氧化碳上下限
        % 碳捕集电厂吸收的二氧化碳量Eab 未运行时为0
        Cons = [Cons, E_beta * (1 - delta_xz ) * uccs1(i,:,t,:).* E_ccs_1(i,:,t,:) <= E_ccs_ab_1(i,:,t,:)];
        Cons = [Cons, E_ccs_ab_1(i,:,t,:) <= E_beta * delta_xz * uccs1(i,:,t,:).* E_ccs_1(i,:,t,:)]; 
        Cons = [Cons, E_beta * (1 - delta_xz ) * uccs2(i,:,t,:).* E_ccs_2(i,:,t,:) <= E_ccs_ab_2(i,:,t,:)];
        Cons = [Cons, E_ccs_ab_2(i,:,t,:) <= E_beta * delta_xz * uccs2(i,:,t,:).* E_ccs_2(i,:,t,:)];
        Cons = [Cons, E_beta * (1 - delta_xz ) * I_gen_ccs_3(i,:,:).* E_ccs_3(i,:,t,:) <= E_ccs_ab_3(i,:,t,:)];
        Cons = [Cons, E_ccs_ab_3(i,:,t,:) <= E_beta * delta_xz * I_gen_ccs_3(i,:,:).* E_ccs_3(i,:,t,:)];
        Cons = [Cons, E_beta * (1 - delta_xz ) * I_gen_ccs_4(i,:,:).* E_ccs_4(i,:,t,:) <= E_ccs_ab_4(i,:,t,:)];
        Cons = [Cons, E_ccs_ab_4(i,:,t,:) <= E_beta * delta_xz * I_gen_ccs_4(i,:,:).*E_ccs_4(i,:,t,:)];
%         % 碳捕集机组能量和二氧化碳流动关系
        Cons = [Cons,energy_ccs1(i,:,t,:) == lamda_a * E_ccs_ab_1(i,:,t,:) + lamda_dc *  E_ccs_de_1(i,:,t,:) + P_D1*uccs1(i,:,t,:)];
        Cons = [Cons,energy_ccs2(i,:,t,:) == lamda_a * E_ccs_ab_2(i,:,t,:) + lamda_dc *  E_ccs_de_2(i,:,t,:) + P_D1*uccs2(i,:,t,:)];